CAMK_MAPKAPK2_8XU4_S021-0180_1
  DSViewer          3D                             0

 36 39  0  0  0  0  0  0  0  0999 V2000
   10.6735   10.1590   -1.4942 F   0  0
   10.4810   10.2436   -0.1775 C   0  0
   11.1752    9.2608    0.3958 F   0  0
   10.9994   11.4007    0.2328 F   0  0
    9.0115   10.1514    0.1783 C   0  0
    7.9010   10.0166   -0.6525 C   0  0
    6.6761    9.9749    0.0179 C   0  0
    6.8045   10.0196    1.4053 C   0  0
    8.4781   10.2463    1.8349 S   0  0
    5.7801   10.0787    2.4367 C   0  0
    4.6827    9.5606    2.2087 O   0  0
    6.0714   10.6705    3.6353 N   0  0
    7.3621   11.3699    3.7886 C   0  0
    8.3473   10.4057    4.4773 C   0  0
    7.7466    9.8998    5.7889 C   0  0
    6.3915    9.8834    5.9761 C   0  0
    5.3814   10.3357    4.9082 C   0  0
    5.8041    9.4621    7.1679 N   0  0
    6.6238    9.0365    8.2018 C   0  0
    6.4163    8.6010    9.4953 C   0  0
    7.6967    8.3230    9.9814 C   0  0
    8.6376    8.5658    9.0954 N   0  0
    7.9934    9.0081    7.9972 N   0  0
    8.6748    9.4231    6.8090 C   0  0
    9.9043    9.3533    6.7403 O   0  0
    7.9776    9.9677   -1.7289 H   0  0
    5.7327    9.9175   -0.5045 H   0  0
    7.7254   11.8005    2.8539 H   0  0
    7.1895   12.2437    4.4188 H   0  0
    8.5662    9.5585    3.8248 H   0  0
    9.2995   10.9132    4.6415 H   0  0
    4.8443   11.2186    5.2563 H   0  0
    4.6471    9.5404    4.7919 H   0  0
    5.4750    8.4928   10.0134 H   0  0
    7.9330    7.9531   10.9683 H   0  0
    4.8264    9.2097    7.1524 H   0  0
  1  2  1  0  0  0
  2  3  1  0  0  0
  2  4  1  0  0  0
  2  5  1  0  0  0
  5  9  1  0  0  0
  5  6  2  0  0  0
  6  7  1  0  0  0
  6 26  1  0  0  0
  7  8  2  0  0  0
  7 27  1  0  0  0
  8  9  1  0  0  0
  8 10  1  0  0  0
 10 11  2  0  0  0
 10 12  1  0  0  0
 12 17  1  0  0  0
 12 13  1  0  0  0
 13 14  1  0  0  0
 13 28  1  0  0  0
 13 29  1  0  0  0
 14 15  1  0  0  0
 14 30  1  0  0  0
 14 31  1  0  0  0
 15 24  1  0  0  0
 15 16  2  0  0  0
 16 17  1  0  0  0
 16 18  1  0  0  0
 17 32  1  0  0  0
 17 33  1  0  0  0
 18 19  1  0  0  0
 18 36  1  0  0  0
 19 23  1  0  0  0
 19 20  2  0  0  0
 20 21  1  0  0  0
 20 34  1  0  0  0
 21 22  2  0  0  0
 21 35  1  0  0  0
 22 23  1  0  0  0
 23 24  1  0  0  0
 24 25  2  0  0  0
M  END
$$$$
